   3
REACTOR RUN - POINT NUMBER 01           
 O   0.0000000   0.0000000  -0.7389276
 H   0.0000000  -1.4309295   0.3694638
 H   0.0000000   1.4309295   0.3694638
   3
REACTOR RUN - POINT NUMBER 02           
 O   0.0000000   0.0000000  -0.6927446
 H   0.0000000  -1.4596043   0.3463723
 H   0.0000000   1.4596043   0.3463723
   3
REACTOR RUN - POINT NUMBER 03           
 O   0.0000000   0.0000000  -0.6465617
 H   0.0000000  -1.4882791   0.3232808
 H   0.0000000   1.4882791   0.3232808
   3
REACTOR RUN - POINT NUMBER 04           
 O   0.0000000   0.0000000  -0.6003787
 H   0.0000000  -1.5169539   0.3001893
 H   0.0000000   1.5169539   0.3001893
   3
REACTOR RUN - POINT NUMBER 05           
 O   0.0000000   0.0000000  -0.5541957
 H   0.0000000  -1.5456286   0.2770979
 H   0.0000000   1.5456286   0.2770979
   3
REACTOR RUN - POINT NUMBER 06           
 O   0.0000000   0.0000000  -0.5080127
 H   0.0000000  -1.5743034   0.2540064
 H   0.0000000   1.5743034   0.2540064
   3
REACTOR RUN - POINT NUMBER 07           
 O   0.0000000   0.0000000  -0.4618298
 H   0.0000000  -1.6029782   0.2309149
 H   0.0000000   1.6029782   0.2309149
   3
REACTOR RUN - POINT NUMBER 08           
 O   0.0000000   0.0000000  -0.4156468
 H   0.0000000  -1.6316530   0.2078234
 H   0.0000000   1.6316530   0.2078234
   3
REACTOR RUN - POINT NUMBER 09           
 O   0.0000000   0.0000000  -0.3694638
 H   0.0000000  -1.6603278   0.1847319
 H   0.0000000   1.6603278   0.1847319
   3
REACTOR RUN - POINT NUMBER 10           
 O   0.0000000   0.0000000  -0.3232808
 H   0.0000000  -1.6890025   0.1616404
 H   0.0000000   1.6890025   0.1616404
   3
REACTOR RUN - POINT NUMBER 11           
 O   0.0000000   0.0000000  -0.2770979
 H   0.0000000  -1.7176773   0.1385489
 H   0.0000000   1.7176773   0.1385489
   3
REACTOR RUN - POINT NUMBER 12           
 O   0.0000000   0.0000000  -0.2309149
 H   0.0000000  -1.7463521   0.1154574
 H   0.0000000   1.7463521   0.1154574
   3
REACTOR RUN - POINT NUMBER 13           
 O   0.0000000   0.0000000  -0.1847319
 H   0.0000000  -1.7750269   0.0923660
 H   0.0000000   1.7750269   0.0923660
   3
REACTOR RUN - POINT NUMBER 14           
 O   0.0000000   0.0000000  -0.1385489
 H   0.0000000  -1.8037016   0.0692745
 H   0.0000000   1.8037016   0.0692745
   3
REACTOR RUN - POINT NUMBER 15           
 O   0.0000000   0.0000000  -0.0923660
 H   0.0000000  -1.8323764   0.0461830
 H   0.0000000   1.8323764   0.0461830
   3
REACTOR RUN - POINT NUMBER 16           
 O   0.0000000   0.0000000  -0.0461830
 H   0.0000000  -1.8610512   0.0230915
 H   0.0000000   1.8610512   0.0230915
   3
REACTOR RUN - POINT NUMBER 17           
 O   0.0000000   0.0000000   0.0000000
 H   0.0000000  -1.8897260   0.0000000
 H   0.0000000   1.8897260   0.0000000
